# UPW package for  MODFLOW-NWT, generated by Flopy.
         0    -1E+30         0         0 
         0
         0
         1
         0
         0
CONSTANT    1.000000E+00                           #hk layer 1                    
CONSTANT    1.000000E+00                           #vka layer 1                   
